
---------- Begin Simulation Statistics ----------
simSeconds                                   0.081376                       # Number of seconds simulated (Second)
simTicks                                  81375787000                       # Number of ticks simulated (Tick)
finalTick                                 81375787000                       # Number of ticks from beginning of simulation (restored from checkpoints and never reset) (Tick)
simFreq                                  1000000000000                       # The number of ticks per simulated second ((Tick/Second))
hostSeconds                                     37.78                       # Real time elapsed on the host (Second)
hostTickRate                               2153777405                       # The number of ticks simulated per host second (ticks/s) ((Tick/Second))
hostMemory                                     752592                       # Number of bytes of host memory used (Byte)
simInsts                                     22031780                       # Number of instructions simulated (Count)
simOps                                       42388586                       # Number of ops (including micro ops) simulated (Count)
hostInstRate                                   583115                       # Simulator instruction rate (inst/s) ((Count/Second))
hostOpRate                                    1121897                       # Simulator op (including micro ops) rate (op/s) ((Count/Second))
system.clk_domain.clock                          1000                       # Clock period in ticks (Tick)
system.clk_domain.voltage_domain.voltage            1                       # Voltage in Volts (Volt)
system.cpu.numCycles                         81375787                       # Number of cpu cycles simulated (Cycle)
system.cpu.cpi                               3.693485                       # CPI: cycles per instruction (core level) ((Cycle/Count))
system.cpu.ipc                               0.270747                       # IPC: instructions per cycle (core level) ((Count/Cycle))
system.cpu.numWorkItemsStarted                      0                       # Number of work items this cpu started (Count)
system.cpu.numWorkItemsCompleted                    0                       # Number of work items this cpu completed (Count)
system.cpu.commitStats0.numInsts             22032252                       # Number of instructions committed (thread level) (Count)
system.cpu.commitStats0.numOps               42389228                       # Number of ops (including micro ops) committed (thread level) (Count)
system.cpu.commitStats0.numInstsNotNOP              0                       # Number of instructions committed excluding NOPs or prefetches (Count)
system.cpu.commitStats0.numOpsNotNOP                0                       # Number of Ops (including micro ops) Simulated (Count)
system.cpu.commitStats0.cpi                  3.693485                       # CPI: cycles per instruction (thread level) ((Cycle/Count))
system.cpu.commitStats0.ipc                  0.270747                       # IPC: instructions per cycle (thread level) ((Count/Cycle))
system.cpu.commitStats0.numMemRefs                  0                       # Number of memory references committed (Count)
system.cpu.commitStats0.numFpInsts              94196                       # Number of float instructions (Count)
system.cpu.commitStats0.numIntInsts          42168167                       # Number of integer instructions (Count)
system.cpu.commitStats0.numLoadInsts          3973006                       # Number of load instructions (Count)
system.cpu.commitStats0.numStoreInsts         1673108                       # Number of store instructions (Count)
system.cpu.commitStats0.numVecInsts                 0                       # Number of vector instructions (Count)
system.cpu.commitStats0.committedInstType::No_OpClass       134420      0.32%      0.32% # Class of committed instruction. (Count)
system.cpu.commitStats0.committedInstType::IntAlu     36306040     85.65%     85.97% # Class of committed instruction. (Count)
system.cpu.commitStats0.committedInstType::IntMult       209515      0.49%     86.46% # Class of committed instruction. (Count)
system.cpu.commitStats0.committedInstType::IntDiv        37810      0.09%     86.55% # Class of committed instruction. (Count)
system.cpu.commitStats0.committedInstType::FloatAdd         7474      0.02%     86.57% # Class of committed instruction. (Count)
system.cpu.commitStats0.committedInstType::FloatCmp            0      0.00%     86.57% # Class of committed instruction. (Count)
system.cpu.commitStats0.committedInstType::FloatCvt         2320      0.01%     86.57% # Class of committed instruction. (Count)
system.cpu.commitStats0.committedInstType::FloatMult            0      0.00%     86.57% # Class of committed instruction. (Count)
system.cpu.commitStats0.committedInstType::FloatMultAcc            0      0.00%     86.57% # Class of committed instruction. (Count)
system.cpu.commitStats0.committedInstType::FloatDiv            0      0.00%     86.57% # Class of committed instruction. (Count)
system.cpu.commitStats0.committedInstType::FloatMisc            0      0.00%     86.57% # Class of committed instruction. (Count)
system.cpu.commitStats0.committedInstType::FloatSqrt            0      0.00%     86.57% # Class of committed instruction. (Count)
system.cpu.commitStats0.committedInstType::SimdAdd         6282      0.01%     86.59% # Class of committed instruction. (Count)
system.cpu.commitStats0.committedInstType::SimdAddAcc            0      0.00%     86.59% # Class of committed instruction. (Count)
system.cpu.commitStats0.committedInstType::SimdAlu        12151      0.03%     86.62% # Class of committed instruction. (Count)
system.cpu.commitStats0.committedInstType::SimdCmp            0      0.00%     86.62% # Class of committed instruction. (Count)
system.cpu.commitStats0.committedInstType::SimdCvt        12528      0.03%     86.65% # Class of committed instruction. (Count)
system.cpu.commitStats0.committedInstType::SimdMisc        13412      0.03%     86.68% # Class of committed instruction. (Count)
system.cpu.commitStats0.committedInstType::SimdMult            0      0.00%     86.68% # Class of committed instruction. (Count)
system.cpu.commitStats0.committedInstType::SimdMultAcc            0      0.00%     86.68% # Class of committed instruction. (Count)
system.cpu.commitStats0.committedInstType::SimdMatMultAcc            0      0.00%     86.68% # Class of committed instruction. (Count)
system.cpu.commitStats0.committedInstType::SimdShift         1150      0.00%     86.68% # Class of committed instruction. (Count)
system.cpu.commitStats0.committedInstType::SimdShiftAcc            0      0.00%     86.68% # Class of committed instruction. (Count)
system.cpu.commitStats0.committedInstType::SimdDiv            0      0.00%     86.68% # Class of committed instruction. (Count)
system.cpu.commitStats0.committedInstType::SimdSqrt            0      0.00%     86.68% # Class of committed instruction. (Count)
system.cpu.commitStats0.committedInstType::SimdFloatAdd            4      0.00%     86.68% # Class of committed instruction. (Count)
system.cpu.commitStats0.committedInstType::SimdFloatAlu            0      0.00%     86.68% # Class of committed instruction. (Count)
system.cpu.commitStats0.committedInstType::SimdFloatCmp            0      0.00%     86.68% # Class of committed instruction. (Count)
system.cpu.commitStats0.committedInstType::SimdFloatCvt            6      0.00%     86.68% # Class of committed instruction. (Count)
system.cpu.commitStats0.committedInstType::SimdFloatDiv            2      0.00%     86.68% # Class of committed instruction. (Count)
system.cpu.commitStats0.committedInstType::SimdFloatMisc            0      0.00%     86.68% # Class of committed instruction. (Count)
system.cpu.commitStats0.committedInstType::SimdFloatMult            0      0.00%     86.68% # Class of committed instruction. (Count)
system.cpu.commitStats0.committedInstType::SimdFloatMultAcc            0      0.00%     86.68% # Class of committed instruction. (Count)
system.cpu.commitStats0.committedInstType::SimdFloatMatMultAcc            0      0.00%     86.68% # Class of committed instruction. (Count)
system.cpu.commitStats0.committedInstType::SimdFloatSqrt            0      0.00%     86.68% # Class of committed instruction. (Count)
system.cpu.commitStats0.committedInstType::SimdReduceAdd            0      0.00%     86.68% # Class of committed instruction. (Count)
system.cpu.commitStats0.committedInstType::SimdReduceAlu            0      0.00%     86.68% # Class of committed instruction. (Count)
system.cpu.commitStats0.committedInstType::SimdReduceCmp            0      0.00%     86.68% # Class of committed instruction. (Count)
system.cpu.commitStats0.committedInstType::SimdFloatReduceAdd            0      0.00%     86.68% # Class of committed instruction. (Count)
system.cpu.commitStats0.committedInstType::SimdFloatReduceCmp            0      0.00%     86.68% # Class of committed instruction. (Count)
system.cpu.commitStats0.committedInstType::SimdAes            0      0.00%     86.68% # Class of committed instruction. (Count)
system.cpu.commitStats0.committedInstType::SimdAesMix            0      0.00%     86.68% # Class of committed instruction. (Count)
system.cpu.commitStats0.committedInstType::SimdSha1Hash            0      0.00%     86.68% # Class of committed instruction. (Count)
system.cpu.commitStats0.committedInstType::SimdSha1Hash2            0      0.00%     86.68% # Class of committed instruction. (Count)
system.cpu.commitStats0.committedInstType::SimdSha256Hash            0      0.00%     86.68% # Class of committed instruction. (Count)
system.cpu.commitStats0.committedInstType::SimdSha256Hash2            0      0.00%     86.68% # Class of committed instruction. (Count)
system.cpu.commitStats0.committedInstType::SimdShaSigma2            0      0.00%     86.68% # Class of committed instruction. (Count)
system.cpu.commitStats0.committedInstType::SimdShaSigma3            0      0.00%     86.68% # Class of committed instruction. (Count)
system.cpu.commitStats0.committedInstType::SimdPredAlu            0      0.00%     86.68% # Class of committed instruction. (Count)
system.cpu.commitStats0.committedInstType::Matrix            0      0.00%     86.68% # Class of committed instruction. (Count)
system.cpu.commitStats0.committedInstType::MatrixMov            0      0.00%     86.68% # Class of committed instruction. (Count)
system.cpu.commitStats0.committedInstType::MatrixOP            0      0.00%     86.68% # Class of committed instruction. (Count)
system.cpu.commitStats0.committedInstType::MemRead      3954741      9.33%     96.01% # Class of committed instruction. (Count)
system.cpu.commitStats0.committedInstType::MemWrite      1656602      3.91%     99.92% # Class of committed instruction. (Count)
system.cpu.commitStats0.committedInstType::FloatMemRead        18265      0.04%     99.96% # Class of committed instruction. (Count)
system.cpu.commitStats0.committedInstType::FloatMemWrite        16506      0.04%    100.00% # Class of committed instruction. (Count)
system.cpu.commitStats0.committedInstType::IprAccess            0      0.00%    100.00% # Class of committed instruction. (Count)
system.cpu.commitStats0.committedInstType::InstPrefetch            0      0.00%    100.00% # Class of committed instruction. (Count)
system.cpu.commitStats0.committedInstType::VectorUnitStrideLoad            0      0.00%    100.00% # Class of committed instruction. (Count)
system.cpu.commitStats0.committedInstType::VectorUnitStrideStore            0      0.00%    100.00% # Class of committed instruction. (Count)
system.cpu.commitStats0.committedInstType::VectorUnitStrideMaskLoad            0      0.00%    100.00% # Class of committed instruction. (Count)
system.cpu.commitStats0.committedInstType::VectorUnitStrideMaskStore            0      0.00%    100.00% # Class of committed instruction. (Count)
system.cpu.commitStats0.committedInstType::VectorStridedLoad            0      0.00%    100.00% # Class of committed instruction. (Count)
system.cpu.commitStats0.committedInstType::VectorStridedStore            0      0.00%    100.00% # Class of committed instruction. (Count)
system.cpu.commitStats0.committedInstType::VectorIndexedLoad            0      0.00%    100.00% # Class of committed instruction. (Count)
system.cpu.commitStats0.committedInstType::VectorIndexedStore            0      0.00%    100.00% # Class of committed instruction. (Count)
system.cpu.commitStats0.committedInstType::VectorUnitStrideFaultOnlyFirstLoad            0      0.00%    100.00% # Class of committed instruction. (Count)
system.cpu.commitStats0.committedInstType::VectorWholeRegisterLoad            0      0.00%    100.00% # Class of committed instruction. (Count)
system.cpu.commitStats0.committedInstType::VectorWholeRegisterStore            0      0.00%    100.00% # Class of committed instruction. (Count)
system.cpu.commitStats0.committedInstType::VectorIntegerArith            0      0.00%    100.00% # Class of committed instruction. (Count)
system.cpu.commitStats0.committedInstType::VectorFloatArith            0      0.00%    100.00% # Class of committed instruction. (Count)
system.cpu.commitStats0.committedInstType::VectorFloatConvert            0      0.00%    100.00% # Class of committed instruction. (Count)
system.cpu.commitStats0.committedInstType::VectorIntegerReduce            0      0.00%    100.00% # Class of committed instruction. (Count)
system.cpu.commitStats0.committedInstType::VectorFloatReduce            0      0.00%    100.00% # Class of committed instruction. (Count)
system.cpu.commitStats0.committedInstType::VectorMisc            0      0.00%    100.00% # Class of committed instruction. (Count)
system.cpu.commitStats0.committedInstType::VectorIntegerExtension            0      0.00%    100.00% # Class of committed instruction. (Count)
system.cpu.commitStats0.committedInstType::VectorConfig            0      0.00%    100.00% # Class of committed instruction. (Count)
system.cpu.commitStats0.committedInstType::total     42389228                       # Class of committed instruction. (Count)
system.cpu.commitStats0.committedControl::IsControl      5478958                       # Class of control type instructions committed (Count)
system.cpu.commitStats0.committedControl::IsDirectControl      5352147                       # Class of control type instructions committed (Count)
system.cpu.commitStats0.committedControl::IsIndirectControl       126666                       # Class of control type instructions committed (Count)
system.cpu.commitStats0.committedControl::IsCondControl      5138786                       # Class of control type instructions committed (Count)
system.cpu.commitStats0.committedControl::IsUncondControl       340027                       # Class of control type instructions committed (Count)
system.cpu.commitStats0.committedControl::IsCall        66717                       # Class of control type instructions committed (Count)
system.cpu.commitStats0.committedControl::IsReturn        66712                       # Class of control type instructions committed (Count)
system.cpu.dcache.demandHits::cpu.data        5473199                       # number of demand (read+write) hits (Count)
system.cpu.dcache.demandHits::total           5473199                       # number of demand (read+write) hits (Count)
system.cpu.dcache.overallHits::cpu.data       5473199                       # number of overall hits (Count)
system.cpu.dcache.overallHits::total          5473199                       # number of overall hits (Count)
system.cpu.dcache.demandMisses::cpu.data       140860                       # number of demand (read+write) misses (Count)
system.cpu.dcache.demandMisses::total          140860                       # number of demand (read+write) misses (Count)
system.cpu.dcache.overallMisses::cpu.data       140860                       # number of overall misses (Count)
system.cpu.dcache.overallMisses::total         140860                       # number of overall misses (Count)
system.cpu.dcache.demandMissLatency::cpu.data  14121510000                       # number of demand (read+write) miss ticks (Tick)
system.cpu.dcache.demandMissLatency::total  14121510000                       # number of demand (read+write) miss ticks (Tick)
system.cpu.dcache.overallMissLatency::cpu.data  14121510000                       # number of overall miss ticks (Tick)
system.cpu.dcache.overallMissLatency::total  14121510000                       # number of overall miss ticks (Tick)
system.cpu.dcache.demandAccesses::cpu.data      5614059                       # number of demand (read+write) accesses (Count)
system.cpu.dcache.demandAccesses::total       5614059                       # number of demand (read+write) accesses (Count)
system.cpu.dcache.overallAccesses::cpu.data      5614059                       # number of overall (read+write) accesses (Count)
system.cpu.dcache.overallAccesses::total      5614059                       # number of overall (read+write) accesses (Count)
system.cpu.dcache.demandMissRate::cpu.data     0.025091                       # miss rate for demand accesses (Ratio)
system.cpu.dcache.demandMissRate::total      0.025091                       # miss rate for demand accesses (Ratio)
system.cpu.dcache.overallMissRate::cpu.data     0.025091                       # miss rate for overall accesses (Ratio)
system.cpu.dcache.overallMissRate::total     0.025091                       # miss rate for overall accesses (Ratio)
system.cpu.dcache.demandAvgMissLatency::cpu.data 100252.094278                       # average overall miss latency in ticks ((Tick/Count))
system.cpu.dcache.demandAvgMissLatency::total 100252.094278                       # average overall miss latency in ticks ((Tick/Count))
system.cpu.dcache.overallAvgMissLatency::cpu.data 100252.094278                       # average overall miss latency ((Tick/Count))
system.cpu.dcache.overallAvgMissLatency::total 100252.094278                       # average overall miss latency ((Tick/Count))
system.cpu.dcache.blockedCycles::no_mshrs            0                       # number of cycles access was blocked (Cycle)
system.cpu.dcache.blockedCycles::no_targets            0                       # number of cycles access was blocked (Cycle)
system.cpu.dcache.blockedCauses::no_mshrs            0                       # number of times access was blocked (Count)
system.cpu.dcache.blockedCauses::no_targets            0                       # number of times access was blocked (Count)
system.cpu.dcache.avgBlocked::no_mshrs            nan                       # average number of cycles each access was blocked ((Cycle/Count))
system.cpu.dcache.avgBlocked::no_targets          nan                       # average number of cycles each access was blocked ((Cycle/Count))
system.cpu.dcache.writebacks::writebacks        75090                       # number of writebacks (Count)
system.cpu.dcache.writebacks::total             75090                       # number of writebacks (Count)
system.cpu.dcache.demandMshrMisses::cpu.data       140860                       # number of demand (read+write) MSHR misses (Count)
system.cpu.dcache.demandMshrMisses::total       140860                       # number of demand (read+write) MSHR misses (Count)
system.cpu.dcache.overallMshrMisses::cpu.data       140860                       # number of overall MSHR misses (Count)
system.cpu.dcache.overallMshrMisses::total       140860                       # number of overall MSHR misses (Count)
system.cpu.dcache.demandMshrMissLatency::cpu.data  13839790000                       # number of demand (read+write) MSHR miss ticks (Tick)
system.cpu.dcache.demandMshrMissLatency::total  13839790000                       # number of demand (read+write) MSHR miss ticks (Tick)
system.cpu.dcache.overallMshrMissLatency::cpu.data  13839790000                       # number of overall MSHR miss ticks (Tick)
system.cpu.dcache.overallMshrMissLatency::total  13839790000                       # number of overall MSHR miss ticks (Tick)
system.cpu.dcache.demandMshrMissRate::cpu.data     0.025091                       # mshr miss ratio for demand accesses (Ratio)
system.cpu.dcache.demandMshrMissRate::total     0.025091                       # mshr miss ratio for demand accesses (Ratio)
system.cpu.dcache.overallMshrMissRate::cpu.data     0.025091                       # mshr miss ratio for overall accesses (Ratio)
system.cpu.dcache.overallMshrMissRate::total     0.025091                       # mshr miss ratio for overall accesses (Ratio)
system.cpu.dcache.demandAvgMshrMissLatency::cpu.data 98252.094278                       # average overall mshr miss latency ((Tick/Count))
system.cpu.dcache.demandAvgMshrMissLatency::total 98252.094278                       # average overall mshr miss latency ((Tick/Count))
system.cpu.dcache.overallAvgMshrMissLatency::cpu.data 98252.094278                       # average overall mshr miss latency ((Tick/Count))
system.cpu.dcache.overallAvgMshrMissLatency::total 98252.094278                       # average overall mshr miss latency ((Tick/Count))
system.cpu.dcache.replacements                 136265                       # number of replacements (Count)
system.cpu.dcache.LockedRMWReadReq.hits::cpu.data        15769                       # number of LockedRMWReadReq hits (Count)
system.cpu.dcache.LockedRMWReadReq.hits::total        15769                       # number of LockedRMWReadReq hits (Count)
system.cpu.dcache.LockedRMWReadReq.misses::cpu.data            4                       # number of LockedRMWReadReq misses (Count)
system.cpu.dcache.LockedRMWReadReq.misses::total            4                       # number of LockedRMWReadReq misses (Count)
system.cpu.dcache.LockedRMWReadReq.missLatency::cpu.data       521000                       # number of LockedRMWReadReq miss ticks (Tick)
system.cpu.dcache.LockedRMWReadReq.missLatency::total       521000                       # number of LockedRMWReadReq miss ticks (Tick)
system.cpu.dcache.LockedRMWReadReq.accesses::cpu.data        15773                       # number of LockedRMWReadReq accesses(hits+misses) (Count)
system.cpu.dcache.LockedRMWReadReq.accesses::total        15773                       # number of LockedRMWReadReq accesses(hits+misses) (Count)
system.cpu.dcache.LockedRMWReadReq.missRate::cpu.data     0.000254                       # miss rate for LockedRMWReadReq accesses (Ratio)
system.cpu.dcache.LockedRMWReadReq.missRate::total     0.000254                       # miss rate for LockedRMWReadReq accesses (Ratio)
system.cpu.dcache.LockedRMWReadReq.avgMissLatency::cpu.data       130250                       # average LockedRMWReadReq miss latency ((Tick/Count))
system.cpu.dcache.LockedRMWReadReq.avgMissLatency::total       130250                       # average LockedRMWReadReq miss latency ((Tick/Count))
system.cpu.dcache.LockedRMWReadReq.mshrMisses::cpu.data            4                       # number of LockedRMWReadReq MSHR misses (Count)
system.cpu.dcache.LockedRMWReadReq.mshrMisses::total            4                       # number of LockedRMWReadReq MSHR misses (Count)
system.cpu.dcache.LockedRMWReadReq.mshrMissLatency::cpu.data     32572000                       # number of LockedRMWReadReq MSHR miss ticks (Tick)
system.cpu.dcache.LockedRMWReadReq.mshrMissLatency::total     32572000                       # number of LockedRMWReadReq MSHR miss ticks (Tick)
system.cpu.dcache.LockedRMWReadReq.mshrMissRate::cpu.data     0.000254                       # mshr miss rate for LockedRMWReadReq accesses (Ratio)
system.cpu.dcache.LockedRMWReadReq.mshrMissRate::total     0.000254                       # mshr miss rate for LockedRMWReadReq accesses (Ratio)
system.cpu.dcache.LockedRMWReadReq.avgMshrMissLatency::cpu.data      8143000                       # average LockedRMWReadReq mshr miss latency ((Tick/Count))
system.cpu.dcache.LockedRMWReadReq.avgMshrMissLatency::total      8143000                       # average LockedRMWReadReq mshr miss latency ((Tick/Count))
system.cpu.dcache.LockedRMWWriteReq.hits::cpu.data        15773                       # number of LockedRMWWriteReq hits (Count)
system.cpu.dcache.LockedRMWWriteReq.hits::total        15773                       # number of LockedRMWWriteReq hits (Count)
system.cpu.dcache.LockedRMWWriteReq.accesses::cpu.data        15773                       # number of LockedRMWWriteReq accesses(hits+misses) (Count)
system.cpu.dcache.LockedRMWWriteReq.accesses::total        15773                       # number of LockedRMWWriteReq accesses(hits+misses) (Count)
system.cpu.dcache.ReadReq.hits::cpu.data      3860371                       # number of ReadReq hits (Count)
system.cpu.dcache.ReadReq.hits::total         3860371                       # number of ReadReq hits (Count)
system.cpu.dcache.ReadReq.misses::cpu.data        96665                       # number of ReadReq misses (Count)
system.cpu.dcache.ReadReq.misses::total         96665                       # number of ReadReq misses (Count)
system.cpu.dcache.ReadReq.missLatency::cpu.data   8978204000                       # number of ReadReq miss ticks (Tick)
system.cpu.dcache.ReadReq.missLatency::total   8978204000                       # number of ReadReq miss ticks (Tick)
system.cpu.dcache.ReadReq.accesses::cpu.data      3957036                       # number of ReadReq accesses(hits+misses) (Count)
system.cpu.dcache.ReadReq.accesses::total      3957036                       # number of ReadReq accesses(hits+misses) (Count)
system.cpu.dcache.ReadReq.missRate::cpu.data     0.024429                       # miss rate for ReadReq accesses (Ratio)
system.cpu.dcache.ReadReq.missRate::total     0.024429                       # miss rate for ReadReq accesses (Ratio)
system.cpu.dcache.ReadReq.avgMissLatency::cpu.data 92879.573786                       # average ReadReq miss latency ((Tick/Count))
system.cpu.dcache.ReadReq.avgMissLatency::total 92879.573786                       # average ReadReq miss latency ((Tick/Count))
system.cpu.dcache.ReadReq.mshrMisses::cpu.data        96665                       # number of ReadReq MSHR misses (Count)
system.cpu.dcache.ReadReq.mshrMisses::total        96665                       # number of ReadReq MSHR misses (Count)
system.cpu.dcache.ReadReq.mshrMissLatency::cpu.data   8784874000                       # number of ReadReq MSHR miss ticks (Tick)
system.cpu.dcache.ReadReq.mshrMissLatency::total   8784874000                       # number of ReadReq MSHR miss ticks (Tick)
system.cpu.dcache.ReadReq.mshrMissRate::cpu.data     0.024429                       # mshr miss rate for ReadReq accesses (Ratio)
system.cpu.dcache.ReadReq.mshrMissRate::total     0.024429                       # mshr miss rate for ReadReq accesses (Ratio)
system.cpu.dcache.ReadReq.avgMshrMissLatency::cpu.data 90879.573786                       # average ReadReq mshr miss latency ((Tick/Count))
system.cpu.dcache.ReadReq.avgMshrMissLatency::total 90879.573786                       # average ReadReq mshr miss latency ((Tick/Count))
system.cpu.dcache.WriteReq.hits::cpu.data      1612828                       # number of WriteReq hits (Count)
system.cpu.dcache.WriteReq.hits::total        1612828                       # number of WriteReq hits (Count)
system.cpu.dcache.WriteReq.misses::cpu.data        44195                       # number of WriteReq misses (Count)
system.cpu.dcache.WriteReq.misses::total        44195                       # number of WriteReq misses (Count)
system.cpu.dcache.WriteReq.missLatency::cpu.data   5143306000                       # number of WriteReq miss ticks (Tick)
system.cpu.dcache.WriteReq.missLatency::total   5143306000                       # number of WriteReq miss ticks (Tick)
system.cpu.dcache.WriteReq.accesses::cpu.data      1657023                       # number of WriteReq accesses(hits+misses) (Count)
system.cpu.dcache.WriteReq.accesses::total      1657023                       # number of WriteReq accesses(hits+misses) (Count)
system.cpu.dcache.WriteReq.missRate::cpu.data     0.026671                       # miss rate for WriteReq accesses (Ratio)
system.cpu.dcache.WriteReq.missRate::total     0.026671                       # miss rate for WriteReq accesses (Ratio)
system.cpu.dcache.WriteReq.avgMissLatency::cpu.data 116377.554022                       # average WriteReq miss latency ((Tick/Count))
system.cpu.dcache.WriteReq.avgMissLatency::total 116377.554022                       # average WriteReq miss latency ((Tick/Count))
system.cpu.dcache.WriteReq.mshrMisses::cpu.data        44195                       # number of WriteReq MSHR misses (Count)
system.cpu.dcache.WriteReq.mshrMisses::total        44195                       # number of WriteReq MSHR misses (Count)
system.cpu.dcache.WriteReq.mshrMissLatency::cpu.data   5054916000                       # number of WriteReq MSHR miss ticks (Tick)
system.cpu.dcache.WriteReq.mshrMissLatency::total   5054916000                       # number of WriteReq MSHR miss ticks (Tick)
system.cpu.dcache.WriteReq.mshrMissRate::cpu.data     0.026671                       # mshr miss rate for WriteReq accesses (Ratio)
system.cpu.dcache.WriteReq.mshrMissRate::total     0.026671                       # mshr miss rate for WriteReq accesses (Ratio)
system.cpu.dcache.WriteReq.avgMshrMissLatency::cpu.data 114377.554022                       # average WriteReq mshr miss latency ((Tick/Count))
system.cpu.dcache.WriteReq.avgMshrMissLatency::total 114377.554022                       # average WriteReq mshr miss latency ((Tick/Count))
system.cpu.dcache.power_state.pwrStateResidencyTicks::UNDEFINED  81375787000                       # Cumulative time (in ticks) in various power states (Tick)
system.cpu.dcache.tags.tagsInUse          1021.016363                       # Average ticks per tags in use ((Tick/Count))
system.cpu.dcache.tags.totalRefs              5645605                       # Total number of references to valid blocks. (Count)
system.cpu.dcache.tags.sampledRefs             137289                       # Sample count of references to valid blocks. (Count)
system.cpu.dcache.tags.avgRefs              41.122049                       # Average number of references to valid blocks. ((Count/Count))
system.cpu.dcache.tags.warmupTick              302000                       # The tick when the warmup percentage was hit. (Tick)
system.cpu.dcache.tags.occupancies::cpu.data  1021.016363                       # Average occupied blocks per tick, per requestor ((Count/Tick))
system.cpu.dcache.tags.avgOccs::cpu.data     0.997086                       # Average percentage of cache occupancy ((Ratio/Tick))
system.cpu.dcache.tags.avgOccs::total        0.997086                       # Average percentage of cache occupancy ((Ratio/Tick))
system.cpu.dcache.tags.occupanciesTaskId::1024         1024                       # Occupied blocks per task id (Count)
system.cpu.dcache.tags.ageTaskId_1024::0           14                       # Occupied blocks per task id, per block age (Count)
system.cpu.dcache.tags.ageTaskId_1024::1          298                       # Occupied blocks per task id, per block age (Count)
system.cpu.dcache.tags.ageTaskId_1024::2          712                       # Occupied blocks per task id, per block age (Count)
system.cpu.dcache.tags.ratioOccsTaskId::1024            1                       # Ratio of occupied blocks and all blocks, per task id (Ratio)
system.cpu.dcache.tags.tagAccesses           45302129                       # Number of tag accesses (Count)
system.cpu.dcache.tags.dataAccesses          45302129                       # Number of data accesses (Count)
system.cpu.dcache.tags.power_state.pwrStateResidencyTicks::UNDEFINED  81375787000                       # Cumulative time (in ticks) in various power states (Tick)
system.cpu.exec_context.thread_0.numMatAluAccesses            0                       # Number of matrix alu accesses (Count)
system.cpu.exec_context.thread_0.numCallsReturns       133429                       # Number of times a function call or return occured (Count)
system.cpu.exec_context.thread_0.numMatInsts            0                       # Number of matrix instructions (Count)
system.cpu.exec_context.thread_0.numIdleCycles     0.001000                       # Number of idle cycles (Cycle)
system.cpu.exec_context.thread_0.numBusyCycles 81375786.999000                       # Number of busy cycles (Cycle)
system.cpu.exec_context.thread_0.notIdleFraction     1.000000                       # Percentage of non-idle cycles (Ratio)
system.cpu.exec_context.thread_0.idleFraction     0.000000                       # Percentage of idle cycles (Ratio)
system.cpu.executeStats0.numInsts                   0                       # Number of executed instructions (Count)
system.cpu.executeStats0.numNop                     0                       # Number of nop insts executed (Count)
system.cpu.executeStats0.numBranches                0                       # Number of branches executed (Count)
system.cpu.executeStats0.numLoadInsts               0                       # Number of load instructions executed (Count)
system.cpu.executeStats0.numStoreInsts        5646114                       # Number of stores executed (Count)
system.cpu.executeStats0.instRate                   0                       # Inst execution rate ((Count/Cycle))
system.cpu.executeStats0.numFpAluAccesses        94196                       # Number of float alu accesses (Count)
system.cpu.executeStats0.numFpRegReads         124542                       # Number of times the floating registers were read (Count)
system.cpu.executeStats0.numFpRegWrites         68861                       # Number of times the floating registers were written (Count)
system.cpu.executeStats0.numIntAluAccesses     42168167                       # Number of integer alu accesses (Count)
system.cpu.executeStats0.numIntRegReads      55111128                       # Number of times the integer registers were read (Count)
system.cpu.executeStats0.numIntRegWrites     29891200                       # Number of times the integer registers were written (Count)
system.cpu.executeStats0.numMemRefs           5646114                       # Number of memory refs (Count)
system.cpu.executeStats0.numMiscRegReads     16694738                       # Number of times the Misc registers were read (Count)
system.cpu.executeStats0.numMiscRegWrites         1305                       # Number of times the Misc registers were written (Count)
system.cpu.executeStats0.numVecAluAccesses            0                       # Number of vector alu accesses (Count)
system.cpu.executeStats0.numDiscardedOps            0                       # Number of ops (including micro ops) which were discarded before commit (Count)
system.cpu.fetchStats0.numInsts              22032252                       # Number of instructions fetched (thread level) (Count)
system.cpu.fetchStats0.numOps                42389228                       # Number of ops (including micro ops) fetched (thread level) (Count)
system.cpu.fetchStats0.fetchRate             0.270747                       # Number of inst fetches per cycle ((Count/Cycle))
system.cpu.fetchStats0.numBranches            5478958                       # Number of branches fetched (Count)
system.cpu.fetchStats0.branchRate            0.067329                       # Number of branch fetches per cycle (Ratio)
system.cpu.fetchStats0.numFetchSuspends             0                       # Number of times Execute suspended instruction fetching (Count)
system.cpu.icache.demandHits::cpu.inst       27913643                       # number of demand (read+write) hits (Count)
system.cpu.icache.demandHits::total          27913643                       # number of demand (read+write) hits (Count)
system.cpu.icache.overallHits::cpu.inst      27913643                       # number of overall hits (Count)
system.cpu.icache.overallHits::total         27913643                       # number of overall hits (Count)
system.cpu.icache.demandMisses::cpu.inst         3172                       # number of demand (read+write) misses (Count)
system.cpu.icache.demandMisses::total            3172                       # number of demand (read+write) misses (Count)
system.cpu.icache.overallMisses::cpu.inst         3172                       # number of overall misses (Count)
system.cpu.icache.overallMisses::total           3172                       # number of overall misses (Count)
system.cpu.icache.demandMissLatency::cpu.inst    417355000                       # number of demand (read+write) miss ticks (Tick)
system.cpu.icache.demandMissLatency::total    417355000                       # number of demand (read+write) miss ticks (Tick)
system.cpu.icache.overallMissLatency::cpu.inst    417355000                       # number of overall miss ticks (Tick)
system.cpu.icache.overallMissLatency::total    417355000                       # number of overall miss ticks (Tick)
system.cpu.icache.demandAccesses::cpu.inst     27916815                       # number of demand (read+write) accesses (Count)
system.cpu.icache.demandAccesses::total      27916815                       # number of demand (read+write) accesses (Count)
system.cpu.icache.overallAccesses::cpu.inst     27916815                       # number of overall (read+write) accesses (Count)
system.cpu.icache.overallAccesses::total     27916815                       # number of overall (read+write) accesses (Count)
system.cpu.icache.demandMissRate::cpu.inst     0.000114                       # miss rate for demand accesses (Ratio)
system.cpu.icache.demandMissRate::total      0.000114                       # miss rate for demand accesses (Ratio)
system.cpu.icache.overallMissRate::cpu.inst     0.000114                       # miss rate for overall accesses (Ratio)
system.cpu.icache.overallMissRate::total     0.000114                       # miss rate for overall accesses (Ratio)
system.cpu.icache.demandAvgMissLatency::cpu.inst 131574.716267                       # average overall miss latency in ticks ((Tick/Count))
system.cpu.icache.demandAvgMissLatency::total 131574.716267                       # average overall miss latency in ticks ((Tick/Count))
system.cpu.icache.overallAvgMissLatency::cpu.inst 131574.716267                       # average overall miss latency ((Tick/Count))
system.cpu.icache.overallAvgMissLatency::total 131574.716267                       # average overall miss latency ((Tick/Count))
system.cpu.icache.blockedCycles::no_mshrs            0                       # number of cycles access was blocked (Cycle)
system.cpu.icache.blockedCycles::no_targets            0                       # number of cycles access was blocked (Cycle)
system.cpu.icache.blockedCauses::no_mshrs            0                       # number of times access was blocked (Count)
system.cpu.icache.blockedCauses::no_targets            0                       # number of times access was blocked (Count)
system.cpu.icache.avgBlocked::no_mshrs            nan                       # average number of cycles each access was blocked ((Cycle/Count))
system.cpu.icache.avgBlocked::no_targets          nan                       # average number of cycles each access was blocked ((Cycle/Count))
system.cpu.icache.demandMshrMisses::cpu.inst         3172                       # number of demand (read+write) MSHR misses (Count)
system.cpu.icache.demandMshrMisses::total         3172                       # number of demand (read+write) MSHR misses (Count)
system.cpu.icache.overallMshrMisses::cpu.inst         3172                       # number of overall MSHR misses (Count)
system.cpu.icache.overallMshrMisses::total         3172                       # number of overall MSHR misses (Count)
system.cpu.icache.demandMshrMissLatency::cpu.inst    411011000                       # number of demand (read+write) MSHR miss ticks (Tick)
system.cpu.icache.demandMshrMissLatency::total    411011000                       # number of demand (read+write) MSHR miss ticks (Tick)
system.cpu.icache.overallMshrMissLatency::cpu.inst    411011000                       # number of overall MSHR miss ticks (Tick)
system.cpu.icache.overallMshrMissLatency::total    411011000                       # number of overall MSHR miss ticks (Tick)
system.cpu.icache.demandMshrMissRate::cpu.inst     0.000114                       # mshr miss ratio for demand accesses (Ratio)
system.cpu.icache.demandMshrMissRate::total     0.000114                       # mshr miss ratio for demand accesses (Ratio)
system.cpu.icache.overallMshrMissRate::cpu.inst     0.000114                       # mshr miss ratio for overall accesses (Ratio)
system.cpu.icache.overallMshrMissRate::total     0.000114                       # mshr miss ratio for overall accesses (Ratio)
system.cpu.icache.demandAvgMshrMissLatency::cpu.inst 129574.716267                       # average overall mshr miss latency ((Tick/Count))
system.cpu.icache.demandAvgMshrMissLatency::total 129574.716267                       # average overall mshr miss latency ((Tick/Count))
system.cpu.icache.overallAvgMshrMissLatency::cpu.inst 129574.716267                       # average overall mshr miss latency ((Tick/Count))
system.cpu.icache.overallAvgMshrMissLatency::total 129574.716267                       # average overall mshr miss latency ((Tick/Count))
system.cpu.icache.replacements                   2916                       # number of replacements (Count)
system.cpu.icache.ReadReq.hits::cpu.inst     27913643                       # number of ReadReq hits (Count)
system.cpu.icache.ReadReq.hits::total        27913643                       # number of ReadReq hits (Count)
system.cpu.icache.ReadReq.misses::cpu.inst         3172                       # number of ReadReq misses (Count)
system.cpu.icache.ReadReq.misses::total          3172                       # number of ReadReq misses (Count)
system.cpu.icache.ReadReq.missLatency::cpu.inst    417355000                       # number of ReadReq miss ticks (Tick)
system.cpu.icache.ReadReq.missLatency::total    417355000                       # number of ReadReq miss ticks (Tick)
system.cpu.icache.ReadReq.accesses::cpu.inst     27916815                       # number of ReadReq accesses(hits+misses) (Count)
system.cpu.icache.ReadReq.accesses::total     27916815                       # number of ReadReq accesses(hits+misses) (Count)
system.cpu.icache.ReadReq.missRate::cpu.inst     0.000114                       # miss rate for ReadReq accesses (Ratio)
system.cpu.icache.ReadReq.missRate::total     0.000114                       # miss rate for ReadReq accesses (Ratio)
system.cpu.icache.ReadReq.avgMissLatency::cpu.inst 131574.716267                       # average ReadReq miss latency ((Tick/Count))
system.cpu.icache.ReadReq.avgMissLatency::total 131574.716267                       # average ReadReq miss latency ((Tick/Count))
system.cpu.icache.ReadReq.mshrMisses::cpu.inst         3172                       # number of ReadReq MSHR misses (Count)
system.cpu.icache.ReadReq.mshrMisses::total         3172                       # number of ReadReq MSHR misses (Count)
system.cpu.icache.ReadReq.mshrMissLatency::cpu.inst    411011000                       # number of ReadReq MSHR miss ticks (Tick)
system.cpu.icache.ReadReq.mshrMissLatency::total    411011000                       # number of ReadReq MSHR miss ticks (Tick)
system.cpu.icache.ReadReq.mshrMissRate::cpu.inst     0.000114                       # mshr miss rate for ReadReq accesses (Ratio)
system.cpu.icache.ReadReq.mshrMissRate::total     0.000114                       # mshr miss rate for ReadReq accesses (Ratio)
system.cpu.icache.ReadReq.avgMshrMissLatency::cpu.inst 129574.716267                       # average ReadReq mshr miss latency ((Tick/Count))
system.cpu.icache.ReadReq.avgMshrMissLatency::total 129574.716267                       # average ReadReq mshr miss latency ((Tick/Count))
system.cpu.icache.power_state.pwrStateResidencyTicks::UNDEFINED  81375787000                       # Cumulative time (in ticks) in various power states (Tick)
system.cpu.icache.tags.tagsInUse           255.823848                       # Average ticks per tags in use ((Tick/Count))
system.cpu.icache.tags.totalRefs             27916815                       # Total number of references to valid blocks. (Count)
system.cpu.icache.tags.sampledRefs               3172                       # Sample count of references to valid blocks. (Count)
system.cpu.icache.tags.avgRefs            8801.013556                       # Average number of references to valid blocks. ((Count/Count))
system.cpu.icache.tags.warmupTick              149000                       # The tick when the warmup percentage was hit. (Tick)
system.cpu.icache.tags.occupancies::cpu.inst   255.823848                       # Average occupied blocks per tick, per requestor ((Count/Tick))
system.cpu.icache.tags.avgOccs::cpu.inst     0.999312                       # Average percentage of cache occupancy ((Ratio/Tick))
system.cpu.icache.tags.avgOccs::total        0.999312                       # Average percentage of cache occupancy ((Ratio/Tick))
system.cpu.icache.tags.occupanciesTaskId::1024          256                       # Occupied blocks per task id (Count)
system.cpu.icache.tags.ageTaskId_1024::0           35                       # Occupied blocks per task id, per block age (Count)
system.cpu.icache.tags.ageTaskId_1024::1          114                       # Occupied blocks per task id, per block age (Count)
system.cpu.icache.tags.ageTaskId_1024::2           76                       # Occupied blocks per task id, per block age (Count)
system.cpu.icache.tags.ageTaskId_1024::3           12                       # Occupied blocks per task id, per block age (Count)
system.cpu.icache.tags.ageTaskId_1024::4           19                       # Occupied blocks per task id, per block age (Count)
system.cpu.icache.tags.ratioOccsTaskId::1024            1                       # Ratio of occupied blocks and all blocks, per task id (Ratio)
system.cpu.icache.tags.tagAccesses          223337692                       # Number of tag accesses (Count)
system.cpu.icache.tags.dataAccesses         223337692                       # Number of data accesses (Count)
system.cpu.icache.tags.power_state.pwrStateResidencyTicks::UNDEFINED  81375787000                       # Cumulative time (in ticks) in various power states (Tick)
system.cpu.interrupts.clk_domain.clock          16000                       # Clock period in ticks (Tick)
system.cpu.mmu.dtb.rdAccesses                 3973040                       # TLB accesses on read requests (Count)
system.cpu.mmu.dtb.wrAccesses                 1673124                       # TLB accesses on write requests (Count)
system.cpu.mmu.dtb.rdMisses                      6856                       # TLB misses on read requests (Count)
system.cpu.mmu.dtb.wrMisses                       969                       # TLB misses on write requests (Count)
system.cpu.mmu.dtb.walker.power_state.pwrStateResidencyTicks::UNDEFINED  81375787000                       # Cumulative time (in ticks) in various power states (Tick)
system.cpu.mmu.itb.rdAccesses                       0                       # TLB accesses on read requests (Count)
system.cpu.mmu.itb.wrAccesses                27916968                       # TLB accesses on write requests (Count)
system.cpu.mmu.itb.rdMisses                         0                       # TLB misses on read requests (Count)
system.cpu.mmu.itb.wrMisses                       551                       # TLB misses on write requests (Count)
system.cpu.mmu.itb.walker.power_state.pwrStateResidencyTicks::UNDEFINED  81375787000                       # Cumulative time (in ticks) in various power states (Tick)
system.cpu.power_state.pwrStateResidencyTicks::ON  81375787000                       # Cumulative time (in ticks) in various power states (Tick)
system.cpu.thread_0.numInsts                        0                       # Number of Instructions committed (Count)
system.cpu.thread_0.numOps                          0                       # Number of Ops committed (Count)
system.cpu.thread_0.numMemRefs                      0                       # Number of Memory References (Count)
system.cpu.workload.numSyscalls                    84                       # Number of system calls (Count)
system.l2bus.transDist::ReadResp                99837                       # Transaction distribution (Count)
system.l2bus.transDist::WritebackDirty         133732                       # Transaction distribution (Count)
system.l2bus.transDist::CleanEvict             130174                       # Transaction distribution (Count)
system.l2bus.transDist::UpgradeReq               3575                       # Transaction distribution (Count)
system.l2bus.transDist::UpgradeResp              3575                       # Transaction distribution (Count)
system.l2bus.transDist::ReadExReq               40624                       # Transaction distribution (Count)
system.l2bus.transDist::ReadExResp              40624                       # Transaction distribution (Count)
system.l2bus.transDist::ReadSharedReq           99837                       # Transaction distribution (Count)
system.l2bus.pktCount_system.cpu.icache.mem_side_port::system.l2cache.cpu_side_port         9260                       # Packet count per connected requestor and responder (Count)
system.l2bus.pktCount_system.cpu.dcache.mem_side_port::system.l2cache.cpu_side_port       417993                       # Packet count per connected requestor and responder (Count)
system.l2bus.pktCount::total                   427253                       # Packet count per connected requestor and responder (Count)
system.l2bus.pktSize_system.cpu.icache.mem_side_port::system.l2cache.cpu_side_port       203008                       # Cumulative packet size per connected requestor and responder (Byte)
system.l2bus.pktSize_system.cpu.dcache.mem_side_port::system.l2cache.cpu_side_port     13592256                       # Cumulative packet size per connected requestor and responder (Byte)
system.l2bus.pktSize::total                  13795264                       # Cumulative packet size per connected requestor and responder (Byte)
system.l2bus.snoops                            124725                       # Total snoops (Count)
system.l2bus.snoopTraffic                     3753088                       # Total snoop traffic (Byte)
system.l2bus.snoopFanout::samples              268761                       # Request fanout histogram (Count)
system.l2bus.snoopFanout::mean               0.011553                       # Request fanout histogram (Count)
system.l2bus.snoopFanout::stdev              0.106862                       # Request fanout histogram (Count)
system.l2bus.snoopFanout::underflows                0      0.00%      0.00% # Request fanout histogram (Count)
system.l2bus.snoopFanout::0                    265656     98.84%     98.84% # Request fanout histogram (Count)
system.l2bus.snoopFanout::1                      3105      1.16%    100.00% # Request fanout histogram (Count)
system.l2bus.snoopFanout::2                         0      0.00%    100.00% # Request fanout histogram (Count)
system.l2bus.snoopFanout::overflows                 0      0.00%    100.00% # Request fanout histogram (Count)
system.l2bus.snoopFanout::min_value                 0                       # Request fanout histogram (Count)
system.l2bus.snoopFanout::max_value                 1                       # Request fanout histogram (Count)
system.l2bus.snoopFanout::total                268761                       # Request fanout histogram (Count)
system.l2bus.power_state.pwrStateResidencyTicks::UNDEFINED  81375787000                       # Cumulative time (in ticks) in various power states (Tick)
system.l2bus.reqLayer0.occupancy            433397000                       # Layer occupancy (ticks) (Tick)
system.l2bus.reqLayer0.utilization                0.0                       # Layer utilization (Ratio)
system.l2bus.respLayer0.occupancy             9516000                       # Layer occupancy (ticks) (Tick)
system.l2bus.respLayer0.utilization               0.0                       # Layer utilization (Ratio)
system.l2bus.respLayer1.occupancy           415442000                       # Layer occupancy (ticks) (Tick)
system.l2bus.respLayer1.utilization               0.0                       # Layer utilization (Ratio)
system.l2bus.snoop_filter.totRequests          283217                       # Total number of requests made to the snoop filter. (Count)
system.l2bus.snoop_filter.hitSingleRequests       142756                       # Number of requests hitting in the snoop filter with a single holder of the requested data. (Count)
system.l2bus.snoop_filter.hitMultiRequests            1                       # Number of requests hitting in the snoop filter with multiple (>1) holders of the requested data. (Count)
system.l2bus.snoop_filter.totSnoops              3104                       # Total number of snoops made to the snoop filter. (Count)
system.l2bus.snoop_filter.hitSingleSnoops         3104                       # Number of snoops hitting in the snoop filter with a single holder of the requested data. (Count)
system.l2bus.snoop_filter.hitMultiSnoops            0                       # Number of snoops hitting in the snoop filter with multiple (>1) holders of the requested data. (Count)
system.l2cache.demandHits::cpu.inst               408                       # number of demand (read+write) hits (Count)
system.l2cache.demandHits::cpu.data             34181                       # number of demand (read+write) hits (Count)
system.l2cache.demandHits::total                34589                       # number of demand (read+write) hits (Count)
system.l2cache.overallHits::cpu.inst              408                       # number of overall hits (Count)
system.l2cache.overallHits::cpu.data            34181                       # number of overall hits (Count)
system.l2cache.overallHits::total               34589                       # number of overall hits (Count)
system.l2cache.demandMisses::cpu.inst            2764                       # number of demand (read+write) misses (Count)
system.l2cache.demandMisses::cpu.data          103108                       # number of demand (read+write) misses (Count)
system.l2cache.demandMisses::total             105872                       # number of demand (read+write) misses (Count)
system.l2cache.overallMisses::cpu.inst           2764                       # number of overall misses (Count)
system.l2cache.overallMisses::cpu.data         103108                       # number of overall misses (Count)
system.l2cache.overallMisses::total            105872                       # number of overall misses (Count)
system.l2cache.demandMissLatency::cpu.inst    392886000                       # number of demand (read+write) miss ticks (Tick)
system.l2cache.demandMissLatency::cpu.data  12624762000                       # number of demand (read+write) miss ticks (Tick)
system.l2cache.demandMissLatency::total   13017648000                       # number of demand (read+write) miss ticks (Tick)
system.l2cache.overallMissLatency::cpu.inst    392886000                       # number of overall miss ticks (Tick)
system.l2cache.overallMissLatency::cpu.data  12624762000                       # number of overall miss ticks (Tick)
system.l2cache.overallMissLatency::total  13017648000                       # number of overall miss ticks (Tick)
system.l2cache.demandAccesses::cpu.inst          3172                       # number of demand (read+write) accesses (Count)
system.l2cache.demandAccesses::cpu.data        137289                       # number of demand (read+write) accesses (Count)
system.l2cache.demandAccesses::total           140461                       # number of demand (read+write) accesses (Count)
system.l2cache.overallAccesses::cpu.inst         3172                       # number of overall (read+write) accesses (Count)
system.l2cache.overallAccesses::cpu.data       137289                       # number of overall (read+write) accesses (Count)
system.l2cache.overallAccesses::total          140461                       # number of overall (read+write) accesses (Count)
system.l2cache.demandMissRate::cpu.inst      0.871375                       # miss rate for demand accesses (Ratio)
system.l2cache.demandMissRate::cpu.data      0.751029                       # miss rate for demand accesses (Ratio)
system.l2cache.demandMissRate::total         0.753747                       # miss rate for demand accesses (Ratio)
system.l2cache.overallMissRate::cpu.inst     0.871375                       # miss rate for overall accesses (Ratio)
system.l2cache.overallMissRate::cpu.data     0.751029                       # miss rate for overall accesses (Ratio)
system.l2cache.overallMissRate::total        0.753747                       # miss rate for overall accesses (Ratio)
system.l2cache.demandAvgMissLatency::cpu.inst 142143.994211                       # average overall miss latency in ticks ((Tick/Count))
system.l2cache.demandAvgMissLatency::cpu.data 122442.118943                       # average overall miss latency in ticks ((Tick/Count))
system.l2cache.demandAvgMissLatency::total 122956.475744                       # average overall miss latency in ticks ((Tick/Count))
system.l2cache.overallAvgMissLatency::cpu.inst 142143.994211                       # average overall miss latency ((Tick/Count))
system.l2cache.overallAvgMissLatency::cpu.data 122442.118943                       # average overall miss latency ((Tick/Count))
system.l2cache.overallAvgMissLatency::total 122956.475744                       # average overall miss latency ((Tick/Count))
system.l2cache.blockedCycles::no_mshrs              0                       # number of cycles access was blocked (Cycle)
system.l2cache.blockedCycles::no_targets            0                       # number of cycles access was blocked (Cycle)
system.l2cache.blockedCauses::no_mshrs              0                       # number of times access was blocked (Count)
system.l2cache.blockedCauses::no_targets            0                       # number of times access was blocked (Count)
system.l2cache.avgBlocked::no_mshrs               nan                       # average number of cycles each access was blocked ((Cycle/Count))
system.l2cache.avgBlocked::no_targets             nan                       # average number of cycles each access was blocked ((Cycle/Count))
system.l2cache.writebacks::writebacks           58642                       # number of writebacks (Count)
system.l2cache.writebacks::total                58642                       # number of writebacks (Count)
system.l2cache.demandMshrMisses::cpu.inst         2764                       # number of demand (read+write) MSHR misses (Count)
system.l2cache.demandMshrMisses::cpu.data       103108                       # number of demand (read+write) MSHR misses (Count)
system.l2cache.demandMshrMisses::total         105872                       # number of demand (read+write) MSHR misses (Count)
system.l2cache.overallMshrMisses::cpu.inst         2764                       # number of overall MSHR misses (Count)
system.l2cache.overallMshrMisses::cpu.data       103108                       # number of overall MSHR misses (Count)
system.l2cache.overallMshrMisses::total        105872                       # number of overall MSHR misses (Count)
system.l2cache.demandMshrMissLatency::cpu.inst    337606000                       # number of demand (read+write) MSHR miss ticks (Tick)
system.l2cache.demandMshrMissLatency::cpu.data  10562602000                       # number of demand (read+write) MSHR miss ticks (Tick)
system.l2cache.demandMshrMissLatency::total  10900208000                       # number of demand (read+write) MSHR miss ticks (Tick)
system.l2cache.overallMshrMissLatency::cpu.inst    337606000                       # number of overall MSHR miss ticks (Tick)
system.l2cache.overallMshrMissLatency::cpu.data  10562602000                       # number of overall MSHR miss ticks (Tick)
system.l2cache.overallMshrMissLatency::total  10900208000                       # number of overall MSHR miss ticks (Tick)
system.l2cache.demandMshrMissRate::cpu.inst     0.871375                       # mshr miss ratio for demand accesses (Ratio)
system.l2cache.demandMshrMissRate::cpu.data     0.751029                       # mshr miss ratio for demand accesses (Ratio)
system.l2cache.demandMshrMissRate::total     0.753747                       # mshr miss ratio for demand accesses (Ratio)
system.l2cache.overallMshrMissRate::cpu.inst     0.871375                       # mshr miss ratio for overall accesses (Ratio)
system.l2cache.overallMshrMissRate::cpu.data     0.751029                       # mshr miss ratio for overall accesses (Ratio)
system.l2cache.overallMshrMissRate::total     0.753747                       # mshr miss ratio for overall accesses (Ratio)
system.l2cache.demandAvgMshrMissLatency::cpu.inst 122143.994211                       # average overall mshr miss latency ((Tick/Count))
system.l2cache.demandAvgMshrMissLatency::cpu.data 102442.118943                       # average overall mshr miss latency ((Tick/Count))
system.l2cache.demandAvgMshrMissLatency::total 102956.475744                       # average overall mshr miss latency ((Tick/Count))
system.l2cache.overallAvgMshrMissLatency::cpu.inst 122143.994211                       # average overall mshr miss latency ((Tick/Count))
system.l2cache.overallAvgMshrMissLatency::cpu.data 102442.118943                       # average overall mshr miss latency ((Tick/Count))
system.l2cache.overallAvgMshrMissLatency::total 102956.475744                       # average overall mshr miss latency ((Tick/Count))
system.l2cache.replacements                    102765                       # number of replacements (Count)
system.l2cache.CleanEvict.mshrMisses::writebacks          950                       # number of CleanEvict MSHR misses (Count)
system.l2cache.CleanEvict.mshrMisses::total          950                       # number of CleanEvict MSHR misses (Count)
system.l2cache.CleanEvict.mshrMissRate::writebacks          inf                       # mshr miss rate for CleanEvict accesses (Ratio)
system.l2cache.CleanEvict.mshrMissRate::total          inf                       # mshr miss rate for CleanEvict accesses (Ratio)
system.l2cache.ReadExReq.hits::cpu.data          5406                       # number of ReadExReq hits (Count)
system.l2cache.ReadExReq.hits::total             5406                       # number of ReadExReq hits (Count)
system.l2cache.ReadExReq.misses::cpu.data        35218                       # number of ReadExReq misses (Count)
system.l2cache.ReadExReq.misses::total          35218                       # number of ReadExReq misses (Count)
system.l2cache.ReadExReq.missLatency::cpu.data   4734220000                       # number of ReadExReq miss ticks (Tick)
system.l2cache.ReadExReq.missLatency::total   4734220000                       # number of ReadExReq miss ticks (Tick)
system.l2cache.ReadExReq.accesses::cpu.data        40624                       # number of ReadExReq accesses(hits+misses) (Count)
system.l2cache.ReadExReq.accesses::total        40624                       # number of ReadExReq accesses(hits+misses) (Count)
system.l2cache.ReadExReq.missRate::cpu.data     0.866926                       # miss rate for ReadExReq accesses (Ratio)
system.l2cache.ReadExReq.missRate::total     0.866926                       # miss rate for ReadExReq accesses (Ratio)
system.l2cache.ReadExReq.avgMissLatency::cpu.data 134426.145721                       # average ReadExReq miss latency ((Tick/Count))
system.l2cache.ReadExReq.avgMissLatency::total 134426.145721                       # average ReadExReq miss latency ((Tick/Count))
system.l2cache.ReadExReq.mshrMisses::cpu.data        35218                       # number of ReadExReq MSHR misses (Count)
system.l2cache.ReadExReq.mshrMisses::total        35218                       # number of ReadExReq MSHR misses (Count)
system.l2cache.ReadExReq.mshrMissLatency::cpu.data   4029860000                       # number of ReadExReq MSHR miss ticks (Tick)
system.l2cache.ReadExReq.mshrMissLatency::total   4029860000                       # number of ReadExReq MSHR miss ticks (Tick)
system.l2cache.ReadExReq.mshrMissRate::cpu.data     0.866926                       # mshr miss rate for ReadExReq accesses (Ratio)
system.l2cache.ReadExReq.mshrMissRate::total     0.866926                       # mshr miss rate for ReadExReq accesses (Ratio)
system.l2cache.ReadExReq.avgMshrMissLatency::cpu.data 114426.145721                       # average ReadExReq mshr miss latency ((Tick/Count))
system.l2cache.ReadExReq.avgMshrMissLatency::total 114426.145721                       # average ReadExReq mshr miss latency ((Tick/Count))
system.l2cache.ReadSharedReq.hits::cpu.inst          408                       # number of ReadSharedReq hits (Count)
system.l2cache.ReadSharedReq.hits::cpu.data        28775                       # number of ReadSharedReq hits (Count)
system.l2cache.ReadSharedReq.hits::total        29183                       # number of ReadSharedReq hits (Count)
system.l2cache.ReadSharedReq.misses::cpu.inst         2764                       # number of ReadSharedReq misses (Count)
system.l2cache.ReadSharedReq.misses::cpu.data        67890                       # number of ReadSharedReq misses (Count)
system.l2cache.ReadSharedReq.misses::total        70654                       # number of ReadSharedReq misses (Count)
system.l2cache.ReadSharedReq.missLatency::cpu.inst    392886000                       # number of ReadSharedReq miss ticks (Tick)
system.l2cache.ReadSharedReq.missLatency::cpu.data   7890542000                       # number of ReadSharedReq miss ticks (Tick)
system.l2cache.ReadSharedReq.missLatency::total   8283428000                       # number of ReadSharedReq miss ticks (Tick)
system.l2cache.ReadSharedReq.accesses::cpu.inst         3172                       # number of ReadSharedReq accesses(hits+misses) (Count)
system.l2cache.ReadSharedReq.accesses::cpu.data        96665                       # number of ReadSharedReq accesses(hits+misses) (Count)
system.l2cache.ReadSharedReq.accesses::total        99837                       # number of ReadSharedReq accesses(hits+misses) (Count)
system.l2cache.ReadSharedReq.missRate::cpu.inst     0.871375                       # miss rate for ReadSharedReq accesses (Ratio)
system.l2cache.ReadSharedReq.missRate::cpu.data     0.702322                       # miss rate for ReadSharedReq accesses (Ratio)
system.l2cache.ReadSharedReq.missRate::total     0.707694                       # miss rate for ReadSharedReq accesses (Ratio)
system.l2cache.ReadSharedReq.avgMissLatency::cpu.inst 142143.994211                       # average ReadSharedReq miss latency ((Tick/Count))
system.l2cache.ReadSharedReq.avgMissLatency::cpu.data 116225.394020                       # average ReadSharedReq miss latency ((Tick/Count))
system.l2cache.ReadSharedReq.avgMissLatency::total 117239.335353                       # average ReadSharedReq miss latency ((Tick/Count))
system.l2cache.ReadSharedReq.mshrMisses::cpu.inst         2764                       # number of ReadSharedReq MSHR misses (Count)
system.l2cache.ReadSharedReq.mshrMisses::cpu.data        67890                       # number of ReadSharedReq MSHR misses (Count)
system.l2cache.ReadSharedReq.mshrMisses::total        70654                       # number of ReadSharedReq MSHR misses (Count)
system.l2cache.ReadSharedReq.mshrMissLatency::cpu.inst    337606000                       # number of ReadSharedReq MSHR miss ticks (Tick)
system.l2cache.ReadSharedReq.mshrMissLatency::cpu.data   6532742000                       # number of ReadSharedReq MSHR miss ticks (Tick)
system.l2cache.ReadSharedReq.mshrMissLatency::total   6870348000                       # number of ReadSharedReq MSHR miss ticks (Tick)
system.l2cache.ReadSharedReq.mshrMissRate::cpu.inst     0.871375                       # mshr miss rate for ReadSharedReq accesses (Ratio)
system.l2cache.ReadSharedReq.mshrMissRate::cpu.data     0.702322                       # mshr miss rate for ReadSharedReq accesses (Ratio)
system.l2cache.ReadSharedReq.mshrMissRate::total     0.707694                       # mshr miss rate for ReadSharedReq accesses (Ratio)
system.l2cache.ReadSharedReq.avgMshrMissLatency::cpu.inst 122143.994211                       # average ReadSharedReq mshr miss latency ((Tick/Count))
system.l2cache.ReadSharedReq.avgMshrMissLatency::cpu.data 96225.394020                       # average ReadSharedReq mshr miss latency ((Tick/Count))
system.l2cache.ReadSharedReq.avgMshrMissLatency::total 97239.335353                       # average ReadSharedReq mshr miss latency ((Tick/Count))
system.l2cache.UpgradeReq.hits::cpu.data         3575                       # number of UpgradeReq hits (Count)
system.l2cache.UpgradeReq.hits::total            3575                       # number of UpgradeReq hits (Count)
system.l2cache.UpgradeReq.accesses::cpu.data         3575                       # number of UpgradeReq accesses(hits+misses) (Count)
system.l2cache.UpgradeReq.accesses::total         3575                       # number of UpgradeReq accesses(hits+misses) (Count)
system.l2cache.WritebackDirty.hits::writebacks        75090                       # number of WritebackDirty hits (Count)
system.l2cache.WritebackDirty.hits::total        75090                       # number of WritebackDirty hits (Count)
system.l2cache.WritebackDirty.accesses::writebacks        75090                       # number of WritebackDirty accesses(hits+misses) (Count)
system.l2cache.WritebackDirty.accesses::total        75090                       # number of WritebackDirty accesses(hits+misses) (Count)
system.l2cache.power_state.pwrStateResidencyTicks::UNDEFINED  81375787000                       # Cumulative time (in ticks) in various power states (Tick)
system.l2cache.tags.tagsInUse             4062.774116                       # Average ticks per tags in use ((Tick/Count))
system.l2cache.tags.totalRefs                  282266                       # Total number of references to valid blocks. (Count)
system.l2cache.tags.sampledRefs                106861                       # Sample count of references to valid blocks. (Count)
system.l2cache.tags.avgRefs                  2.641431                       # Average number of references to valid blocks. ((Count/Count))
system.l2cache.tags.warmupTick                 128000                       # The tick when the warmup percentage was hit. (Tick)
system.l2cache.tags.occupancies::writebacks    19.608000                       # Average occupied blocks per tick, per requestor ((Count/Tick))
system.l2cache.tags.occupancies::cpu.inst    82.005405                       # Average occupied blocks per tick, per requestor ((Count/Tick))
system.l2cache.tags.occupancies::cpu.data  3961.160712                       # Average occupied blocks per tick, per requestor ((Count/Tick))
system.l2cache.tags.avgOccs::writebacks      0.004787                       # Average percentage of cache occupancy ((Ratio/Tick))
system.l2cache.tags.avgOccs::cpu.inst        0.020021                       # Average percentage of cache occupancy ((Ratio/Tick))
system.l2cache.tags.avgOccs::cpu.data        0.967080                       # Average percentage of cache occupancy ((Ratio/Tick))
system.l2cache.tags.avgOccs::total           0.991888                       # Average percentage of cache occupancy ((Ratio/Tick))
system.l2cache.tags.occupanciesTaskId::1024         4096                       # Occupied blocks per task id (Count)
system.l2cache.tags.ageTaskId_1024::0              48                       # Occupied blocks per task id, per block age (Count)
system.l2cache.tags.ageTaskId_1024::1             319                       # Occupied blocks per task id, per block age (Count)
system.l2cache.tags.ageTaskId_1024::2            1657                       # Occupied blocks per task id, per block age (Count)
system.l2cache.tags.ageTaskId_1024::3            2072                       # Occupied blocks per task id, per block age (Count)
system.l2cache.tags.ratioOccsTaskId::1024            1                       # Ratio of occupied blocks and all blocks, per task id (Ratio)
system.l2cache.tags.tagAccesses               2372589                       # Number of tag accesses (Count)
system.l2cache.tags.dataAccesses              2372589                       # Number of data accesses (Count)
system.l2cache.tags.power_state.pwrStateResidencyTicks::UNDEFINED  81375787000                       # Cumulative time (in ticks) in various power states (Tick)
system.l3bus.transDist::ReadResp                70654                       # Transaction distribution (Count)
system.l3bus.transDist::WritebackDirty          90779                       # Transaction distribution (Count)
system.l3bus.transDist::CleanEvict              95659                       # Transaction distribution (Count)
system.l3bus.transDist::ReadExReq               35218                       # Transaction distribution (Count)
system.l3bus.transDist::ReadExResp              35218                       # Transaction distribution (Count)
system.l3bus.transDist::ReadSharedReq           70654                       # Transaction distribution (Count)
system.l3bus.pktCount_system.l2cache.mem_side_port::system.l3cache.cpu_side_port       313500                       # Packet count per connected requestor and responder (Count)
system.l3bus.pktSize_system.l2cache.mem_side_port::system.l3cache.cpu_side_port     10528896                       # Cumulative packet size per connected requestor and responder (Byte)
system.l3bus.snoops                             84682                       # Total snoops (Count)
system.l3bus.snoopTraffic                     2056768                       # Total snoop traffic (Byte)
system.l3bus.snoopFanout::samples              190554                       # Request fanout histogram (Count)
system.l3bus.snoopFanout::mean               0.115243                       # Request fanout histogram (Count)
system.l3bus.snoopFanout::stdev              0.319316                       # Request fanout histogram (Count)
system.l3bus.snoopFanout::underflows                0      0.00%      0.00% # Request fanout histogram (Count)
system.l3bus.snoopFanout::0                    168594     88.48%     88.48% # Request fanout histogram (Count)
system.l3bus.snoopFanout::1                     21960     11.52%    100.00% # Request fanout histogram (Count)
system.l3bus.snoopFanout::overflows                 0      0.00%    100.00% # Request fanout histogram (Count)
system.l3bus.snoopFanout::min_value                 0                       # Request fanout histogram (Count)
system.l3bus.snoopFanout::max_value                 1                       # Request fanout histogram (Count)
system.l3bus.snoopFanout::total                190554                       # Request fanout histogram (Count)
system.l3bus.power_state.pwrStateResidencyTicks::UNDEFINED  81375787000                       # Cumulative time (in ticks) in various power states (Tick)
system.l3bus.reqLayer0.occupancy            324912000                       # Layer occupancy (ticks) (Tick)
system.l3bus.reqLayer0.utilization                0.0                       # Layer utilization (Ratio)
system.l3bus.respLayer0.occupancy           317616000                       # Layer occupancy (ticks) (Tick)
system.l3bus.respLayer0.utilization               0.0                       # Layer utilization (Ratio)
system.l3bus.snoop_filter.totRequests          207628                       # Total number of requests made to the snoop filter. (Count)
system.l3bus.snoop_filter.hitSingleRequests       101756                       # Number of requests hitting in the snoop filter with a single holder of the requested data. (Count)
system.l3bus.snoop_filter.hitMultiRequests            0                       # Number of requests hitting in the snoop filter with multiple (>1) holders of the requested data. (Count)
system.l3bus.snoop_filter.totSnoops             21960                       # Total number of snoops made to the snoop filter. (Count)
system.l3bus.snoop_filter.hitSingleSnoops        21960                       # Number of snoops hitting in the snoop filter with a single holder of the requested data. (Count)
system.l3bus.snoop_filter.hitMultiSnoops            0                       # Number of snoops hitting in the snoop filter with multiple (>1) holders of the requested data. (Count)
system.l3cache.demandHits::cpu.inst                48                       # number of demand (read+write) hits (Count)
system.l3cache.demandHits::cpu.data             26711                       # number of demand (read+write) hits (Count)
system.l3cache.demandHits::total                26759                       # number of demand (read+write) hits (Count)
system.l3cache.overallHits::cpu.inst               48                       # number of overall hits (Count)
system.l3cache.overallHits::cpu.data            26711                       # number of overall hits (Count)
system.l3cache.overallHits::total               26759                       # number of overall hits (Count)
system.l3cache.demandMisses::cpu.inst            2716                       # number of demand (read+write) misses (Count)
system.l3cache.demandMisses::cpu.data           76397                       # number of demand (read+write) misses (Count)
system.l3cache.demandMisses::total              79113                       # number of demand (read+write) misses (Count)
system.l3cache.overallMisses::cpu.inst           2716                       # number of overall misses (Count)
system.l3cache.overallMisses::cpu.data          76397                       # number of overall misses (Count)
system.l3cache.overallMisses::total             79113                       # number of overall misses (Count)
system.l3cache.demandMissLatency::cpu.inst    275790000                       # number of demand (read+write) miss ticks (Tick)
system.l3cache.demandMissLatency::cpu.data   7733295000                       # number of demand (read+write) miss ticks (Tick)
system.l3cache.demandMissLatency::total    8009085000                       # number of demand (read+write) miss ticks (Tick)
system.l3cache.overallMissLatency::cpu.inst    275790000                       # number of overall miss ticks (Tick)
system.l3cache.overallMissLatency::cpu.data   7733295000                       # number of overall miss ticks (Tick)
system.l3cache.overallMissLatency::total   8009085000                       # number of overall miss ticks (Tick)
system.l3cache.demandAccesses::cpu.inst          2764                       # number of demand (read+write) accesses (Count)
system.l3cache.demandAccesses::cpu.data        103108                       # number of demand (read+write) accesses (Count)
system.l3cache.demandAccesses::total           105872                       # number of demand (read+write) accesses (Count)
system.l3cache.overallAccesses::cpu.inst         2764                       # number of overall (read+write) accesses (Count)
system.l3cache.overallAccesses::cpu.data       103108                       # number of overall (read+write) accesses (Count)
[...]
system.mem_ctrl.dram.bytesWritten::total      2056768                       # Number of bytes written to this memory (Byte)
system.mem_ctrl.dram.numReads::cpu.inst          2716                       # Number of read requests responded to by this memory (Count)
system.mem_ctrl.dram.numReads::cpu.data         76397                       # Number of read requests responded to by this memory (Count)
system.mem_ctrl.dram.numReads::total            79113                       # Number of read requests responded to by this memory (Count)
system.mem_ctrl.dram.numWrites::writebacks        32137                       # Number of write requests responded to by this memory (Count)
system.mem_ctrl.dram.numWrites::total           32137                       # Number of write requests responded to by this memory (Count)
system.mem_ctrl.dram.bwRead::cpu.inst         2136065                       # Total read bandwidth from this memory ((Byte/Second))
system.mem_ctrl.dram.bwRead::cpu.data        60084310                       # Total read bandwidth from this memory ((Byte/Second))
system.mem_ctrl.dram.bwRead::total           62220375                       # Total read bandwidth from this memory ((Byte/Second))
system.mem_ctrl.dram.bwInstRead::cpu.inst      2136065                       # Instruction read bandwidth from this memory ((Byte/Second))
system.mem_ctrl.dram.bwInstRead::total        2136065                       # Instruction read bandwidth from this memory ((Byte/Second))
system.mem_ctrl.dram.bwWrite::writebacks     25274938                       # Write bandwidth from this memory ((Byte/Second))
system.mem_ctrl.dram.bwWrite::total          25274938                       # Write bandwidth from this memory ((Byte/Second))
system.mem_ctrl.dram.bwTotal::writebacks     25274938                       # Total bandwidth to/from this memory ((Byte/Second))
system.mem_ctrl.dram.bwTotal::cpu.inst        2136065                       # Total bandwidth to/from this memory ((Byte/Second))
system.mem_ctrl.dram.bwTotal::cpu.data       60084310                       # Total bandwidth to/from this memory ((Byte/Second))
system.mem_ctrl.dram.bwTotal::total          87495314                       # Total bandwidth to/from this memory ((Byte/Second))
system.mem_ctrl.dram.readBursts                 78969                       # Number of DRAM read bursts (Count)
system.mem_ctrl.dram.writeBursts                32121                       # Number of DRAM write bursts (Count)
system.mem_ctrl.dram.perBankRdBursts::0          5390                       # Per bank write bursts (Count)
system.mem_ctrl.dram.perBankRdBursts::1          5102                       # Per bank write bursts (Count)
system.mem_ctrl.dram.perBankRdBursts::2          4816                       # Per bank write bursts (Count)
system.mem_ctrl.dram.perBankRdBursts::3          4413                       # Per bank write bursts (Count)
system.mem_ctrl.dram.perBankRdBursts::4          4872                       # Per bank write bursts (Count)
system.mem_ctrl.dram.perBankRdBursts::5          4694                       # Per bank write bursts (Count)
system.mem_ctrl.dram.perBankRdBursts::6          4914                       # Per bank write bursts (Count)
system.mem_ctrl.dram.perBankRdBursts::7          5170                       # Per bank write bursts (Count)
system.mem_ctrl.dram.perBankRdBursts::8          5153                       # Per bank write bursts (Count)
system.mem_ctrl.dram.perBankRdBursts::9          5130                       # Per bank write bursts (Count)
system.mem_ctrl.dram.perBankRdBursts::10         4582                       # Per bank write bursts (Count)
system.mem_ctrl.dram.perBankRdBursts::11         4330                       # Per bank write bursts (Count)
system.mem_ctrl.dram.perBankRdBursts::12         4869                       # Per bank write bursts (Count)
system.mem_ctrl.dram.perBankRdBursts::13         5101                       # Per bank write bursts (Count)
system.mem_ctrl.dram.perBankRdBursts::14         5282                       # Per bank write bursts (Count)
system.mem_ctrl.dram.perBankRdBursts::15         5151                       # Per bank write bursts (Count)
system.mem_ctrl.dram.perBankWrBursts::0          2122                       # Per bank write bursts (Count)
system.mem_ctrl.dram.perBankWrBursts::1          2193                       # Per bank write bursts (Count)
system.mem_ctrl.dram.perBankWrBursts::2          1916                       # Per bank write bursts (Count)
system.mem_ctrl.dram.perBankWrBursts::3          1811                       # Per bank write bursts (Count)
system.mem_ctrl.dram.perBankWrBursts::4          2015                       # Per bank write bursts (Count)
system.mem_ctrl.dram.perBankWrBursts::5          1860                       # Per bank write bursts (Count)
system.mem_ctrl.dram.perBankWrBursts::6          2061                       # Per bank write bursts (Count)
system.mem_ctrl.dram.perBankWrBursts::7          2263                       # Per bank write bursts (Count)
system.mem_ctrl.dram.perBankWrBursts::8          1955                       # Per bank write bursts (Count)
system.mem_ctrl.dram.perBankWrBursts::9          2090                       # Per bank write bursts (Count)
system.mem_ctrl.dram.perBankWrBursts::10         1858                       # Per bank write bursts (Count)
system.mem_ctrl.dram.perBankWrBursts::11         1802                       # Per bank write bursts (Count)
system.mem_ctrl.dram.perBankWrBursts::12         1930                       # Per bank write bursts (Count)
system.mem_ctrl.dram.perBankWrBursts::13         2032                       # Per bank write bursts (Count)
system.mem_ctrl.dram.perBankWrBursts::14         2105                       # Per bank write bursts (Count)
system.mem_ctrl.dram.perBankWrBursts::15         2108                       # Per bank write bursts (Count)
system.mem_ctrl.dram.totQLat                885245750                       # Total ticks spent queuing (Tick)
system.mem_ctrl.dram.totBusLat              394845000                       # Total ticks spent in databus transfers (Tick)
system.mem_ctrl.dram.totMemAccLat          2365914500                       # Total ticks spent from burst creation until serviced by the DRAM (Tick)
system.mem_ctrl.dram.avgQLat                 11210.04                       # Average queueing delay per DRAM burst ((Tick/Count))
system.mem_ctrl.dram.avgBusLat                5000.00                       # Average bus latency per DRAM burst ((Tick/Count))
system.mem_ctrl.dram.avgMemAccLat            29960.04                       # Average memory access latency per DRAM burst ((Tick/Count))
system.mem_ctrl.dram.readRowHits                50588                       # Number of row buffer hits during reads (Count)
system.mem_ctrl.dram.writeRowHits               28020                       # Number of row buffer hits during writes (Count)
system.mem_ctrl.dram.readRowHitRate             64.06                       # Row buffer hit rate for reads (Ratio)
system.mem_ctrl.dram.writeRowHitRate            87.23                       # Row buffer hit rate for writes (Ratio)
system.mem_ctrl.dram.bytesPerActivate::samples        32479                       # Bytes accessed per row activation (Byte)
system.mem_ctrl.dram.bytesPerActivate::mean   218.897380                       # Bytes accessed per row activation (Byte)
system.mem_ctrl.dram.bytesPerActivate::gmean   137.583029                       # Bytes accessed per row activation (Byte)
system.mem_ctrl.dram.bytesPerActivate::stdev   252.581721                       # Bytes accessed per row activation (Byte)
system.mem_ctrl.dram.bytesPerActivate::0-127        15140     46.61%     46.61% # Bytes accessed per row activation (Byte)
system.mem_ctrl.dram.bytesPerActivate::128-255         7906     24.34%     70.96% # Bytes accessed per row activation (Byte)
system.mem_ctrl.dram.bytesPerActivate::256-383         3849     11.85%     82.81% # Bytes accessed per row activation (Byte)
system.mem_ctrl.dram.bytesPerActivate::384-511         1036      3.19%     86.00% # Bytes accessed per row activation (Byte)
system.mem_ctrl.dram.bytesPerActivate::512-639         1726      5.31%     91.31% # Bytes accessed per row activation (Byte)
system.mem_ctrl.dram.bytesPerActivate::640-767          637      1.96%     93.27% # Bytes accessed per row activation (Byte)
system.mem_ctrl.dram.bytesPerActivate::768-895          315      0.97%     94.24% # Bytes accessed per row activation (Byte)
system.mem_ctrl.dram.bytesPerActivate::896-1023          305      0.94%     95.18% # Bytes accessed per row activation (Byte)
system.mem_ctrl.dram.bytesPerActivate::1024-1151         1565      4.82%    100.00% # Bytes accessed per row activation (Byte)
system.mem_ctrl.dram.bytesPerActivate::total        32479                       # Bytes accessed per row activation (Byte)
system.mem_ctrl.dram.bytesRead                5054016                       # Total bytes read (Byte)
system.mem_ctrl.dram.bytesWritten             2055744                       # Total bytes written (Byte)
system.mem_ctrl.dram.avgRdBW                62.107123                       # Average DRAM read bandwidth in MiBytes/s ((Byte/Second))
system.mem_ctrl.dram.avgWrBW                25.262355                       # Average DRAM write bandwidth in MiBytes/s ((Byte/Second))
system.mem_ctrl.dram.peakBW                  12800.00                       # Theoretical peak bandwidth in MiByte/s ((Byte/Second))
system.mem_ctrl.dram.busUtil                     0.68                       # Data bus utilization in percentage (Ratio)
system.mem_ctrl.dram.busUtilRead                 0.49                       # Data bus utilization in percentage for reads (Ratio)
system.mem_ctrl.dram.busUtilWrite                0.20                       # Data bus utilization in percentage for writes (Ratio)
system.mem_ctrl.dram.pageHitRate                70.76                       # Row buffer hit rate, read and write combined (Ratio)
system.mem_ctrl.dram.power_state.pwrStateResidencyTicks::UNDEFINED  81375787000                       # Cumulative time (in ticks) in various power states (Tick)
system.mem_ctrl.dram.rank0.actEnergy        112626360                       # Energy for activate commands per rank (pJ) (Joule)
system.mem_ctrl.dram.rank0.preEnergy         59854740                       # Energy for precharge commands per rank (pJ) (Joule)
system.mem_ctrl.dram.rank0.readEnergy       281108940                       # Energy for read commands per rank (pJ) (Joule)
system.mem_ctrl.dram.rank0.writeEnergy       84778020                       # Energy for write commands per rank (pJ) (Joule)
system.mem_ctrl.dram.rank0.refreshEnergy 6423602640.000001                       # Energy for refresh commands per rank (pJ) (Joule)
system.mem_ctrl.dram.rank0.actBackEnergy  22098178380                       # Energy for active background per rank (pJ) (Joule)
system.mem_ctrl.dram.rank0.preBackEnergy  12639310080                       # Energy for precharge background per rank (pJ) (Joule)
system.mem_ctrl.dram.rank0.actPowerDownEnergy            0                       # Energy for active power-down per rank (pJ) (Joule)
system.mem_ctrl.dram.rank0.prePowerDownEnergy            0                       # Energy for precharge power-down per rank (pJ) (Joule)
system.mem_ctrl.dram.rank0.selfRefreshEnergy            0                       # Energy for self refresh per rank (pJ) (Joule)
system.mem_ctrl.dram.rank0.totalEnergy    41699459160                       # Total energy per rank (pJ) (Joule)
system.mem_ctrl.dram.rank0.averagePower    512.430794                       # Core power per rank (mW) (Watt)
system.mem_ctrl.dram.rank0.totalIdleTime            0                       # Total Idle time Per DRAM Rank (Tick)
system.mem_ctrl.dram.rank0.pwrStateTime::IDLE  32646713750                       # Time in different power states (Tick)
system.mem_ctrl.dram.rank0.pwrStateTime::REF   2717260000                       # Time in different power states (Tick)
system.mem_ctrl.dram.rank0.pwrStateTime::SREF            0                       # Time in different power states (Tick)
system.mem_ctrl.dram.rank0.pwrStateTime::PRE_PDN            0                       # Time in different power states (Tick)
system.mem_ctrl.dram.rank0.pwrStateTime::ACT  46011813250                       # Time in different power states (Tick)
system.mem_ctrl.dram.rank0.pwrStateTime::ACT_PDN            0                       # Time in different power states (Tick)
system.mem_ctrl.dram.rank1.actEnergy        119295120                       # Energy for activate commands per rank (pJ) (Joule)
system.mem_ctrl.dram.rank1.preEnergy         63403065                       # Energy for precharge commands per rank (pJ) (Joule)
system.mem_ctrl.dram.rank1.readEnergy       282729720                       # Energy for read commands per rank (pJ) (Joule)
system.mem_ctrl.dram.rank1.writeEnergy       82893600                       # Energy for write commands per rank (pJ) (Joule)
system.mem_ctrl.dram.rank1.refreshEnergy 6423602640.000001                       # Energy for refresh commands per rank (pJ) (Joule)
system.mem_ctrl.dram.rank1.actBackEnergy  22108601970                       # Energy for active background per rank (pJ) (Joule)
system.mem_ctrl.dram.rank1.preBackEnergy  12630532320                       # Energy for precharge background per rank (pJ) (Joule)
system.mem_ctrl.dram.rank1.actPowerDownEnergy            0                       # Energy for active power-down per rank (pJ) (Joule)
system.mem_ctrl.dram.rank1.prePowerDownEnergy            0                       # Energy for precharge power-down per rank (pJ) (Joule)
system.mem_ctrl.dram.rank1.selfRefreshEnergy            0                       # Energy for self refresh per rank (pJ) (Joule)
system.mem_ctrl.dram.rank1.totalEnergy    41711058435                       # Total energy per rank (pJ) (Joule)
system.mem_ctrl.dram.rank1.averagePower    512.573334                       # Core power per rank (mW) (Watt)
system.mem_ctrl.dram.rank1.totalIdleTime            0                       # Total Idle time Per DRAM Rank (Tick)
system.mem_ctrl.dram.rank1.pwrStateTime::IDLE  32610205250                       # Time in different power states (Tick)
system.mem_ctrl.dram.rank1.pwrStateTime::REF   2717260000                       # Time in different power states (Tick)
system.mem_ctrl.dram.rank1.pwrStateTime::SREF            0                       # Time in different power states (Tick)
system.mem_ctrl.dram.rank1.pwrStateTime::PRE_PDN            0                       # Time in different power states (Tick)
system.mem_ctrl.dram.rank1.pwrStateTime::ACT  46048321750                       # Time in different power states (Tick)
system.mem_ctrl.dram.rank1.pwrStateTime::ACT_PDN            0                       # Time in different power states (Tick)
system.mem_ctrl.power_state.pwrStateResidencyTicks::UNDEFINED  81375787000                       # Cumulative time (in ticks) in various power states (Tick)
system.membus.transDist::ReadResp               47617                       # Transaction distribution (Count)
system.membus.transDist::WritebackDirty         32137                       # Transaction distribution (Count)
system.membus.transDist::CleanEvict             38532                       # Transaction distribution (Count)
system.membus.transDist::ReadExReq              31496                       # Transaction distribution (Count)
system.membus.transDist::ReadExResp             31496                       # Transaction distribution (Count)
system.membus.transDist::ReadSharedReq          47617                       # Transaction distribution (Count)
system.membus.pktCount_system.l3cache.mem_side_port::system.mem_ctrl.port       228895                       # Packet count per connected requestor and responder (Count)
system.membus.pktCount_system.l3cache.mem_side_port::total       228895                       # Packet count per connected requestor and responder (Count)
system.membus.pktCount::total                  228895                       # Packet count per connected requestor and responder (Count)
system.membus.pktSize_system.l3cache.mem_side_port::system.mem_ctrl.port      7120000                       # Cumulative packet size per connected requestor and responder (Byte)
system.membus.pktSize_system.l3cache.mem_side_port::total      7120000                       # Cumulative packet size per connected requestor and responder (Byte)
system.membus.pktSize::total                  7120000                       # Cumulative packet size per connected requestor and responder (Byte)
system.membus.snoops                                0                       # Total snoops (Count)
system.membus.snoopTraffic                          0                       # Total snoop traffic (Byte)
system.membus.snoopFanout::samples              79113                       # Request fanout histogram (Count)
system.membus.snoopFanout::mean                     0                       # Request fanout histogram (Count)
system.membus.snoopFanout::stdev                    0                       # Request fanout histogram (Count)
system.membus.snoopFanout::underflows               0      0.00%      0.00% # Request fanout histogram (Count)
system.membus.snoopFanout::0                    79113    100.00%    100.00% # Request fanout histogram (Count)
system.membus.snoopFanout::1                        0      0.00%    100.00% # Request fanout histogram (Count)
system.membus.snoopFanout::overflows                0      0.00%    100.00% # Request fanout histogram (Count)
system.membus.snoopFanout::min_value                0                       # Request fanout histogram (Count)
system.membus.snoopFanout::max_value                0                       # Request fanout histogram (Count)
system.membus.snoopFanout::total                79113                       # Request fanout histogram (Count)
system.membus.power_state.pwrStateResidencyTicks::UNDEFINED  81375787000                       # Cumulative time (in ticks) in various power states (Tick)
system.membus.reqLayer2.occupancy           278330000                       # Layer occupancy (ticks) (Tick)
system.membus.reqLayer2.utilization               0.0                       # Layer utilization (Ratio)
system.membus.respLayer0.occupancy          423151500                       # Layer occupancy (ticks) (Tick)
system.membus.respLayer0.utilization              0.0                       # Layer utilization (Ratio)
system.membus.snoop_filter.totRequests         149782                       # Total number of requests made to the snoop filter. (Count)
system.membus.snoop_filter.hitSingleRequests        70669                       # Number of requests hitting in the snoop filter with a single holder of the requested data. (Count)
system.membus.snoop_filter.hitMultiRequests            0                       # Number of requests hitting in the snoop filter with multiple (>1) holders of the requested data. (Count)
system.membus.snoop_filter.totSnoops                0                       # Total number of snoops made to the snoop filter. (Count)
system.membus.snoop_filter.hitSingleSnoops            0                       # Number of snoops hitting in the snoop filter with a single holder of the requested data. (Count)
system.membus.snoop_filter.hitMultiSnoops            0                       # Number of snoops hitting in the snoop filter with multiple (>1) holders of the requested data. (Count)
system.workload.inst.arm                            0                       # number of arm instructions executed (Count)
system.workload.inst.quiesce                        0                       # number of quiesce instructions executed (Count)

---------- End Simulation Statistics   ----------
